Circuit: * C:\Users\Charlie\Projects\amp-work\Benson Monarch\LTSpice\benson-monarch-reverb.asc

WARNING: Less than two connections to node NC_01.  This node is used by R:TONEPOT:1.
WARNING: Less than two connections to node NC_04.  This node is used by R:PHASEINVBALANCEPOT:2.
Direct Newton iteration for .op point succeeded.

mainsvoltage: RMS(v(ht1))=341.494 FROM 0 TO 1.28
mainsvoltagediff: PP(v(ht1))=17.8229 FROM 0 TO 1.28
mainsvoltagediffper: mainsvoltagediff/mainsvoltage=0.052191
hvcurrent: RMS(i(hv3))=0.111712 FROM 0 TO 1.28
hvpeakcurrent: PP(i(hv3))=0.348537 FROM 0 TO 1.28


Date: Tue Jan 31 15:02:32 2023
Total elapsed time: 11.151 seconds.

tnom = 27
temp = 27
method = Gear
totiter = 1116689
traniter = 1116667
tranpoints = 486457
accept = 317954
rejected = 168503
matrix size = 113
fillins = 107
solver = Normal
Thread vector: 12.7/3.5[4] 1.8/0.9[4] 2.0/0.8[4] 0.4/0.9[1]  2592/500
Matrix Compiler1: 16.83 KB object code size  2.2/1.1/[0.5]
Matrix Compiler2: 11.78 KB object code size  0.7/1.0/[0.4]

