Circuit: * C:\Users\Charlie\Projects\amp-work\Benson Monarch\LTSpice\Hammond370DX.asc

ERROR: Node NC_03 is floating and connected to current source R2
ERROR: Node NC_05 is floating and connected to current source R6

WARNING: Less than two connections to node NC_01.  This node is used by V§MAINSPOWER.
.OP point found by inspection.

htv: RMS(v(302.7v))=1.16277 FROM 0 TO 0.08


Date: Tue Jan 31 14:27:03 2023
Total elapsed time: 8.136 seconds.

tnom = 27
temp = 27
method = Gear
totiter = 2000062
traniter = 2000062
tranpoints = 1000032
accept = 1000031
rejected = 1
matrix size = 28
fillins = 21
solver = Normal
Matrix Compiler1: 6.03 KB object code size  0.7/0.3/[0.2]
Matrix Compiler2: 3.16 KB object code size  0.2/0.2/[0.2]

