Circuit: * C:\Users\Charlie\Projects\amp-work\Benson Monarch\LTSpice\Hammond291AEX.asc

WARNING: Less than two connections to node 302.7V.  This node is used by L§HV1.
WARNING: Less than two connections to node 5.558V.  This node is used by L§RF.
WARNING: Less than two connections to node 3.537V.  This node is used by L§HT1.
WARNING: Less than two connections to node N006.  This node is used by L§HT2.
WARNING: Less than two connections to node N003.  This node is used by L§HV4.
.OP point found by inspection.

Date: Sun Jan 29 16:08:51 2023
Total elapsed time: 4.778 seconds.

tnom = 27
temp = 27
method = Gear
totiter = 2000040
traniter = 2000040
tranpoints = 1000021
accept = 1000021
rejected = 0
matrix size = 21
fillins = 8
solver = Normal
Matrix Compiler1: 2.70 KB object code size  0.4/0.2/[0.1]
Matrix Compiler2: 2.47 KB object code size  0.1/0.1/[0.1]

