Circuit: * C:\Users\Charlie\Projects\amp-work\Benson Monarch\LTSpice\Inductor.asc

WARNING: Less than two connections to node OUTPUTUNLOADED.  This node is used by L1.
.OP point found by inspection.

(outputunloaded): RMS(v(outputunloaded))=286.269 FROM 0 TO 0.166667
(outputloaded): RMS(v(outputloaded))=274.847 FROM 0 TO 0.166667


Date: Mon Jan 23 15:05:41 2023
Total elapsed time: 0.078 seconds.

tnom = 27
temp = 27
method = Gear
totiter = 81272
traniter = 81272
tranpoints = 40637
accept = 28459
rejected = 12178
matrix size = 8
fillins = 0
solver = Normal
Matrix Compiler1:      26 opcodes  0.1/[0.0]/0.0
Matrix Compiler2: 630 bytes object code size  0.1/0.1/[0.0]

